* SPICE netlist generated by Yosys 0.5 (git sha1 c3c9fbf, gcc 4.8.2-19ubuntu1 -O2 -fstack-protector -fPIC -Os)

.SUBCKT fpu Clk_i Opa_i[0] Opa_i[1] Opa_i[2] Opa_i[3] Opa_i[4] Opa_i[5] Opa_i[6] Opa_i[7] Opa_i[8] Opa_i[9] Opa_i[10] Opa_i[11] Opa_i[12] Opa_i[13] Opa_i[14] Opa_i[15] Opa_i[16] Opa_i[17] Opa_i[18] Opa_i[19] Opa_i[20] Opa_i[21] Opa_i[22] Opa_i[23] Opa_i[24] Opa_i[25] Opa_i[26] Opa_i[27] Opa_i[28] Opa_i[29] Opa_i[30] Opa_i[31] Opb_i[0] Opb_i[1] Opb_i[2] Opb_i[3] Opb_i[4] Opb_i[5] Opb_i[6] Opb_i[7] Opb_i[8] Opb_i[9] Opb_i[10] Opb_i[11] Opb_i[12] Opb_i[13] Opb_i[14] Opb_i[15] Opb_i[16] Opb_i[17] Opb_i[18] Opb_i[19] Opb_i[20] Opb_i[21] Opb_i[22] Opb_i[23] Opb_i[24] Opb_i[25] Opb_i[26] Opb_i[27] Opb_i[28] Opb_i[29] Opb_i[30] Opb_i[31] Fpu_op_i[0] Fpu_op_i[1] Fpu_op_i[2] Rmode_i[0] Rmode_i[1] Output_o[0] Output_o[1] Output_o[2] Output_o[3] Output_o[4] Output_o[5] Output_o[6] Output_o[7] Output_o[8] Output_o[9] Output_o[10] Output_o[11] Output_o[12] Output_o[13] Output_o[14] Output_o[15] Output_o[16] Output_o[17] Output_o[18] Output_o[19] Output_o[20] Output_o[21] Output_o[22] Output_o[23] Output_o[24] Output_o[25] Output_o[26] Output_o[27] Output_o[28] Output_o[29] Output_o[30] Output_o[31] Start_i Ready_o Ine_o Overflow_o Underflow_o Div_zero_o Inf_o Zero_o Qnan_o Snan_o
X0 Fpu_op_i[2] _NC0 _NC1 N268 INVX0
X1 Fpu_op_i[1] Fpu_op_i[2] N420 _NC2 _NC3 NOR2X0
X2 Fpu_op_i[1] _NC4 _NC5 N269 INVX0
X3 S_output_o[26] S_output_o[25] N94 _NC6 _NC7 NOR2X0
X4 S_opa_i[31] N13 N11 _NC8 _NC9 NOR2X0
X5 S_opa_i[20] _NC10 _NC11 N229 NBUFFX2
X6 N9 S_rmode_i[0] N199 N10 N222 _NC12 _NC13 AND4X1
X7 S_output1[29] N222 S_output_o[31] _NC14 _NC15 OR2X1
X8 N157 N158 N88 _NC16 _NC17 NOR2X0
X9 S_opa_i[1] _NC18 _NC19 N246 NBUFFX2
X10 N68 N69 N581 _NC20 _NC21 NAND2X1
X11 S_opa_i[12] _NC22 _NC23 N226 NBUFFX2
X12 S_opa_i[5] _NC24 _NC25 N250 NBUFFX2
X13 S_opa_i[11] _NC26 _NC27 N256 NBUFFX2
X14 S_count[3] S_count[0] N430 _NC28 _NC29 NOR2X0
X15 N375 N380 N202 N221 _NC30 _NC31 AOI21X1
X16 N410 N450 N202 N209 N220 _NC32 _NC33 AND4X1
X17 N219 N220 N221 S_count[5] N1 _NC34 _NC35 OAI22X1
X18 S_opa_i[12] _NC36 _NC37 N225 NBUFFX2
X19 S_opa_i[12] _NC38 _NC39 N224 NBUFFX2
X20 N211 N204 N650 _NC40 _NC41 NAND2X1
X21 S_opa_i[18] _NC42 _NC43 N262 NBUFFX2
X22 S_opa_i[29] _NC44 _NC45 N264 NBUFFX2
X23 N153 N154 N78 _NC46 _NC47 NOR2X0
X24 S_opa_i[23] _NC48 _NC49 N263 NBUFFX2
X25 S_opa_i[17] _NC50 _NC51 N261 NBUFFX2
X26 S_rmode_i[1] S_output1[29] N27 _NC52 _NC53 NAND2X1
X27 N28 _NC54 _NC55 N270 INVX0
X28 N270 N24 N9 N3 _NC56 _NC57 NAND3X0
X29 S_opa_i[10] _NC58 _NC59 N255 NBUFFX2
X30 S_opa_i[7] _NC60 _NC61 N252 NBUFFX2
X31 S_opa_i[9] _NC62 _NC63 N254 NBUFFX2
X32 S_opa_i[3] _NC64 _NC65 N248 NBUFFX2
X33 S_opa_i[8] _NC66 _NC67 N253 NBUFFX2
X34 S_opa_i[2] _NC68 _NC69 N247 NBUFFX2
X35 S_opa_i[20] _NC70 _NC71 N228 NBUFFX2
X36 S_opa_i[20] _NC72 _NC73 N227 NBUFFX2
X37 S_opa_i[30] _NC74 _NC75 N265 NBUFFX2
X38 S_opa_i[16] _NC76 _NC77 N260 NBUFFX4
X39 S_opa_i[6] _NC78 _NC79 N251 NBUFFX4
X40 S_opa_i[14] _NC80 _NC81 N258 NBUFFX4
X41 N420 _NC82 _NC83 N237 NBUFFX2
X42 N400 _NC84 _NC85 N240 NBUFFX2
X43 N480 _NC86 _NC87 N232 NBUFFX2
X44 N470 _NC88 _NC89 N234 NBUFFX2
X45 N420 _NC90 _NC91 N236 NBUFFX2
X46 N420 _NC92 _NC93 N235 NBUFFX2
X47 N400 _NC94 _NC95 N239 NBUFFX2
X48 N400 _NC96 _NC97 N238 NBUFFX2
X49 N480 _NC98 _NC99 N230 NBUFFX2
X50 N470 _NC100 _NC101 N233 NBUFFX2
X51 N480 _NC102 _NC103 N231 NBUFFX2
X52 N28 N217 N547 _NC104 _NC105 NOR2X0
X53 N590 N217 N546 _NC106 _NC107 NOR2X0
X54 N29 _NC108 _NC109 N245 NBUFFX2
X55 N206 N3 S_output_o[9] _NC110 _NC111 NAND2X1
X56 N213 N3 S_output_o[8] _NC112 _NC113 NAND2X1
X57 N201 N3 S_output_o[7] _NC114 _NC115 NAND2X1
X58 N214 N3 S_output_o[22] _NC116 _NC117 NAND2X1
X59 N204 N3 S_output_o[20] _NC118 _NC119 NAND2X1
X60 N211 N3 S_output_o[1] _NC120 _NC121 NAND2X1
X61 N205 N3 S_output_o[19] _NC122 _NC123 NAND2X1
X62 N212 N3 S_output_o[18] _NC124 _NC125 NAND2X1
X63 N200 N3 S_output_o[17] _NC126 _NC127 NAND2X1
X64 N203 N3 S_output_o[10] _NC128 _NC129 NAND2X1
X65 N210 N3 S_output_o[0] _NC130 _NC131 NAND2X1
X66 N30 _NC132 _NC133 N243 NBUFFX2
X67 N210 N203 N67 _NC134 _NC135 NAND2X1
X68 N1 _NC136 _NC137 N267 INVX0
X69 N30 _NC138 _NC139 N241 NBUFFX2
X70 N30 _NC140 _NC141 N242 NBUFFX2
X71 N29 _NC142 _NC143 N244 NBUFFX2
X72 N266 N207 S_output_o[23] _NC144 _NC145 NOR2X0
X73 N3 _NC146 _NC147 N266 INVX0
X74 N265 _NC148 _NC149 N223 NBUFFX2
X75 S_opa_i[13] _NC150 _NC151 N257 NBUFFX2
X76 S_opa_i[15] _NC152 _NC153 N259 NBUFFX2
X77 S_opa_i[4] _NC154 _NC155 N249 NBUFFX2
X78 S_count[0] S_count[1] S_count[2] S_count[3] S_count[4] S_count[5] S_count[6] S_count[7] S_count[8] S_count[9] S_count[10] S_count[11] S_count[12] S_count[13] S_count[14] S_count[15] S_count[16] S_count[17] S_count[18] S_count[19] S_count[20] S_count[21] S_count[22] S_count[23] S_count[24] S_count[25] S_count[26] S_count[27] S_count[28] S_count[29] S_count[30] S_count[31] N35 N36 N37 N38 N39 N40 N41 N42 N43 N44 N45 N46 N47 N48 N49 N50 N51 N52 N53 N54 N55 N56 N57 N58 N59 N60 N61 N62 N63 N64 N65 N66 fpu_DW01_inc_0
X79 Clk_i S_opa_i[0] N246 N247 N248 N249 N250 N251 N252 N253 N254 N255 N256 N224 N257 N258 N259 N260 N261 N262 S_opa_i[19] N227 S_opa_i[21] S_opa_i[22] N263 S_opa_i[24] S_opa_i[25] S_opa_i[26] S_opa_i[27] S_opa_i[28] N264 N223 S_opa_i[31] Sqrt_sqr_o[0] Sqrt_sqr_o[1] Sqrt_sqr_o[2] Sqrt_sqr_o[3] Sqrt_sqr_o[4] Sqrt_sqr_o[5] Sqrt_sqr_o[6] Sqrt_sqr_o[7] Sqrt_sqr_o[8] Sqrt_sqr_o[9] Sqrt_sqr_o[10] Sqrt_sqr_o[11] Sqrt_sqr_o[12] Sqrt_sqr_o[13] Sqrt_sqr_o[14] Sqrt_sqr_o[15] Sqrt_sqr_o[16] Sqrt_sqr_o[17] Sqrt_sqr_o[18] Sqrt_sqr_o[19] Sqrt_sqr_o[20] Sqrt_sqr_o[21] Sqrt_sqr_o[22] Sqrt_sqr_o[23] Sqrt_sqr_o[24] Sqrt_sqr_o[25] Pre_norm_sqrt_exp_o[0] Pre_norm_sqrt_exp_o[1] Pre_norm_sqrt_exp_o[2] Pre_norm_sqrt_exp_o[3] Pre_norm_sqrt_exp_o[4] Pre_norm_sqrt_exp_o[5] Pre_norm_sqrt_exp_o[6] Pre_norm_sqrt_exp_o[7] Sqrt_ine_o S_rmode_i[0] S_rmode_i[1] Post_norm_sqrt_output[0] Post_norm_sqrt_output[1] Post_norm_sqrt_output[2] Post_norm_sqrt_output[3] Post_norm_sqrt_output[4] Post_norm_sqrt_output[5] Post_norm_sqrt_output[6] Post_norm_sqrt_output[7] Post_norm_sqrt_output[8] Post_norm_sqrt_output[9] Post_norm_sqrt_output[10] Post_norm_sqrt_output[11] Post_norm_sqrt_output[12] Post_norm_sqrt_output[13] Post_norm_sqrt_output[14] Post_norm_sqrt_output[15] Post_norm_sqrt_output[16] Post_norm_sqrt_output[17] Post_norm_sqrt_output[18] Post_norm_sqrt_output[19] Post_norm_sqrt_output[20] Post_norm_sqrt_output[21] Post_norm_sqrt_output[22] Post_norm_sqrt_output[23] Post_norm_sqrt_output[24] Post_norm_sqrt_output[25] Post_norm_sqrt_output[26] Post_norm_sqrt_output[27] Post_norm_sqrt_output[28] Post_norm_sqrt_output[29] Post_norm_sqrt_output[30] Post_norm_sqrt_output[31] Post_norm_sqrt_ine_o post_norm_sqrt
X80 Clk_i Vss Vss Vss Vss Vss Vss Vss Vss Vss Vss Vss Vss Vss Vss Vss Vss Vss Vss Vss Vss Vss Vss Vss Vss Vss Vss Vss Pre_norm_sqrt_fracta_o[27] Pre_norm_sqrt_fracta_o[28] Pre_norm_sqrt_fracta_o[29] Pre_norm_sqrt_fracta_o[30] Pre_norm_sqrt_fracta_o[31] Pre_norm_sqrt_fracta_o[32] Pre_norm_sqrt_fracta_o[33] Pre_norm_sqrt_fracta_o[34] Pre_norm_sqrt_fracta_o[35] Pre_norm_sqrt_fracta_o[36] Pre_norm_sqrt_fracta_o[37] Pre_norm_sqrt_fracta_o[38] Pre_norm_sqrt_fracta_o[39] Pre_norm_sqrt_fracta_o[40] Pre_norm_sqrt_fracta_o[41] Pre_norm_sqrt_fracta_o[42] Pre_norm_sqrt_fracta_o[43] Pre_norm_sqrt_fracta_o[44] Pre_norm_sqrt_fracta_o[45] Pre_norm_sqrt_fracta_o[46] Pre_norm_sqrt_fracta_o[47] Pre_norm_sqrt_fracta_o[48] Pre_norm_sqrt_fracta_o[49] Pre_norm_sqrt_fracta_o[50] Pre_norm_sqrt_fracta_o[51] S_start_i _NC156 Sqrt_sqr_o[0] Sqrt_sqr_o[1] Sqrt_sqr_o[2] Sqrt_sqr_o[3] Sqrt_sqr_o[4] Sqrt_sqr_o[5] Sqrt_sqr_o[6] Sqrt_sqr_o[7] Sqrt_sqr_o[8] Sqrt_sqr_o[9] Sqrt_sqr_o[10] Sqrt_sqr_o[11] Sqrt_sqr_o[12] Sqrt_sqr_o[13] Sqrt_sqr_o[14] Sqrt_sqr_o[15] Sqrt_sqr_o[16] Sqrt_sqr_o[17] Sqrt_sqr_o[18] Sqrt_sqr_o[19] Sqrt_sqr_o[20] Sqrt_sqr_o[21] Sqrt_sqr_o[22] Sqrt_sqr_o[23] Sqrt_sqr_o[24] Sqrt_sqr_o[25] Sqrt_ine_o sqrt_RD_WIDTH52_SQ_WIDTH26
X81 Clk_i S_opa_i[0] N246 N247 N248 N249 N250 N251 N252 N253 N254 N255 N256 N224 N257 N258 N259 N260 N261 N262 S_opa_i[19] N227 S_opa_i[21] S_opa_i[22] N263 S_opa_i[24] S_opa_i[25] S_opa_i[26] S_opa_i[27] S_opa_i[28] N264 N223 S_opa_i[31] SYNOPSYS_UNCONNECTED__57 SYNOPSYS_UNCONNECTED__56 SYNOPSYS_UNCONNECTED__55 SYNOPSYS_UNCONNECTED__54 SYNOPSYS_UNCONNECTED__53 SYNOPSYS_UNCONNECTED__52 SYNOPSYS_UNCONNECTED__51 SYNOPSYS_UNCONNECTED__50 SYNOPSYS_UNCONNECTED__49 SYNOPSYS_UNCONNECTED__48 SYNOPSYS_UNCONNECTED__47 SYNOPSYS_UNCONNECTED__46 SYNOPSYS_UNCONNECTED__45 SYNOPSYS_UNCONNECTED__44 SYNOPSYS_UNCONNECTED__43 SYNOPSYS_UNCONNECTED__42 SYNOPSYS_UNCONNECTED__41 SYNOPSYS_UNCONNECTED__40 SYNOPSYS_UNCONNECTED__39 SYNOPSYS_UNCONNECTED__38 SYNOPSYS_UNCONNECTED__37 SYNOPSYS_UNCONNECTED__36 SYNOPSYS_UNCONNECTED__35 SYNOPSYS_UNCONNECTED__34 SYNOPSYS_UNCONNECTED__33 SYNOPSYS_UNCONNECTED__32 SYNOPSYS_UNCONNECTED__31 Pre_norm_sqrt_fracta_o[27] Pre_norm_sqrt_fracta_o[28] Pre_norm_sqrt_fracta_o[29] Pre_norm_sqrt_fracta_o[30] Pre_norm_sqrt_fracta_o[31] Pre_norm_sqrt_fracta_o[32] Pre_norm_sqrt_fracta_o[33] Pre_norm_sqrt_fracta_o[34] Pre_norm_sqrt_fracta_o[35] Pre_norm_sqrt_fracta_o[36] Pre_norm_sqrt_fracta_o[37] Pre_norm_sqrt_fracta_o[38] Pre_norm_sqrt_fracta_o[39] Pre_norm_sqrt_fracta_o[40] Pre_norm_sqrt_fracta_o[41] Pre_norm_sqrt_fracta_o[42] Pre_norm_sqrt_fracta_o[43] Pre_norm_sqrt_fracta_o[44] Pre_norm_sqrt_fracta_o[45] Pre_norm_sqrt_fracta_o[46] Pre_norm_sqrt_fracta_o[47] Pre_norm_sqrt_fracta_o[48] Pre_norm_sqrt_fracta_o[49] Pre_norm_sqrt_fracta_o[50] Pre_norm_sqrt_fracta_o[51] Pre_norm_sqrt_exp_o[0] Pre_norm_sqrt_exp_o[1] Pre_norm_sqrt_exp_o[2] Pre_norm_sqrt_exp_o[3] Pre_norm_sqrt_exp_o[4] Pre_norm_sqrt_exp_o[5] Pre_norm_sqrt_exp_o[6] Pre_norm_sqrt_exp_o[7] pre_norm_sqrt
X82 Clk_i S_opa_i[0] N246 N247 N248 N249 N250 N251 N252 N253 N254 N255 N256 N225 N257 N258 N259 N260 N261 N262 S_opa_i[19] N228 S_opa_i[21] S_opa_i[22] N263 S_opa_i[24] S_opa_i[25] S_opa_i[26] S_opa_i[27] S_opa_i[28] N264 N223 S_opa_i[31] S_opb_i[0] S_opb_i[1] S_opb_i[2] S_opb_i[3] S_opb_i[4] S_opb_i[5] S_opb_i[6] S_opb_i[7] S_opb_i[8] S_opb_i[9] S_opb_i[10] S_opb_i[11] S_opb_i[12] S_opb_i[13] S_opb_i[14] S_opb_i[15] S_opb_i[16] S_opb_i[17] S_opb_i[18] S_opb_i[19] S_opb_i[20] S_opb_i[21] S_opb_i[22] S_opb_i[23] S_opb_i[24] S_opb_i[25] S_opb_i[26] S_opb_i[27] S_opb_i[28] S_opb_i[29] S_opb_i[30] S_opb_i[31] Serial_div_qutnt[0] Serial_div_qutnt[1] Serial_div_qutnt[2] Serial_div_qutnt[3] Serial_div_qutnt[4] Serial_div_qutnt[5] Serial_div_qutnt[6] Serial_div_qutnt[7] Serial_div_qutnt[8] Serial_div_qutnt[9] Serial_div_qutnt[10] Serial_div_qutnt[11] Serial_div_qutnt[12] Serial_div_qutnt[13] Serial_div_qutnt[14] Serial_div_qutnt[15] Serial_div_qutnt[16] Serial_div_qutnt[17] Serial_div_qutnt[18] Serial_div_qutnt[19] Serial_div_qutnt[20] Serial_div_qutnt[21] Serial_div_qutnt[22] Serial_div_qutnt[23] Serial_div_qutnt[24] Serial_div_qutnt[25] Serial_div_qutnt[26] Serial_div_rmndr[0] Serial_div_rmndr[1] Serial_div_rmndr[2] Serial_div_rmndr[3] Serial_div_rmndr[4] Serial_div_rmndr[5] Serial_div_rmndr[6] Serial_div_rmndr[7] Serial_div_rmndr[8] Serial_div_rmndr[9] Serial_div_rmndr[10] Serial_div_rmndr[11] Serial_div_rmndr[12] Serial_div_rmndr[13] Serial_div_rmndr[14] Serial_div_rmndr[15] Serial_div_rmndr[16] Serial_div_rmndr[17] Serial_div_rmndr[18] Serial_div_rmndr[19] Serial_div_rmndr[20] Serial_div_rmndr[21] Serial_div_rmndr[22] Serial_div_rmndr[23] Serial_div_rmndr[24] Serial_div_rmndr[25] Serial_div_rmndr[26] Pre_norm_div_exp[0] Pre_norm_div_exp[1] Pre_norm_div_exp[2] Pre_norm_div_exp[3] Pre_norm_div_exp[4] Pre_norm_div_exp[5] Pre_norm_div_exp[6] Pre_norm_div_exp[7] Pre_norm_div_exp[8] Pre_norm_div_exp[9] Serial_div_sign S_rmode_i[0] S_rmode_i[1] Post_norm_div_output[0] Post_norm_div_output[1] Post_norm_div_output[2] Post_norm_div_output[3] Post_norm_div_output[4] Post_norm_div_output[5] Post_norm_div_output[6] Post_norm_div_output[7] Post_norm_div_output[8] Post_norm_div_output[9] Post_norm_div_output[10] Post_norm_div_output[11] Post_norm_div_output[12] Post_norm_div_output[13] Post_norm_div_output[14] Post_norm_div_output[15] Post_norm_div_output[16] Post_norm_div_output[17] Post_norm_div_output[18] Post_norm_div_output[19] Post_norm_div_output[20] Post_norm_div_output[21] Post_norm_div_output[22] Post_norm_div_output[23] Post_norm_div_output[24] Post_norm_div_output[25] Post_norm_div_output[26] Post_norm_div_output[27] Post_norm_div_output[28] Post_norm_div_output[29] Post_norm_div_output[30] Post_norm_div_output[31] Post_norm_div_ine post_norm_div
X83 Clk_i Vss Vss Vss Vss Vss Vss Vss Vss Vss Vss Vss Vss Vss Vss Vss Vss Vss Vss Vss Vss Vss Vss Vss Vss Vss Vss Pre_norm_div_dvdnd[26] Pre_norm_div_dvdnd[27] Pre_norm_div_dvdnd[28] Pre_norm_div_dvdnd[29] Pre_norm_div_dvdnd[30] Pre_norm_div_dvdnd[31] Pre_norm_div_dvdnd[32] Pre_norm_div_dvdnd[33] Pre_norm_div_dvdnd[34] Pre_norm_div_dvdnd[35] Pre_norm_div_dvdnd[36] Pre_norm_div_dvdnd[37] Pre_norm_div_dvdnd[38] Pre_norm_div_dvdnd[39] Pre_norm_div_dvdnd[40] Pre_norm_div_dvdnd[41] Pre_norm_div_dvdnd[42] Pre_norm_div_dvdnd[43] Pre_norm_div_dvdnd[44] Pre_norm_div_dvdnd[45] Pre_norm_div_dvdnd[46] Pre_norm_div_dvdnd[47] Pre_norm_div_dvdnd[48] Pre_norm_div_dvdnd[49] Pre_norm_div_dvsor[0] Pre_norm_div_dvsor[1] Pre_norm_div_dvsor[2] Pre_norm_div_dvsor[3] Pre_norm_div_dvsor[4] Pre_norm_div_dvsor[5] Pre_norm_div_dvsor[6] Pre_norm_div_dvsor[7] Pre_norm_div_dvsor[8] Pre_norm_div_dvsor[9] Pre_norm_div_dvsor[10] Pre_norm_div_dvsor[11] Pre_norm_div_dvsor[12] Pre_norm_div_dvsor[13] Pre_norm_div_dvsor[14] Pre_norm_div_dvsor[15] Pre_norm_div_dvsor[16] Pre_norm_div_dvsor[17] Pre_norm_div_dvsor[18] Pre_norm_div_dvsor[19] Pre_norm_div_dvsor[20] Pre_norm_div_dvsor[21] Pre_norm_div_dvsor[22] Pre_norm_div_dvsor[23] Vss Vss Vss S_opa_i[31] S_opb_i[31] S_start_i _NC157 Serial_div_qutnt[0] Serial_div_qutnt[1] Serial_div_qutnt[2] Serial_div_qutnt[3] Serial_div_qutnt[4] Serial_div_qutnt[5] Serial_div_qutnt[6] Serial_div_qutnt[7] Serial_div_qutnt[8] Serial_div_qutnt[9] Serial_div_qutnt[10] Serial_div_qutnt[11] Serial_div_qutnt[12] Serial_div_qutnt[13] Serial_div_qutnt[14] Serial_div_qutnt[15] Serial_div_qutnt[16] Serial_div_qutnt[17] Serial_div_qutnt[18] Serial_div_qutnt[19] Serial_div_qutnt[20] Serial_div_qutnt[21] Serial_div_qutnt[22] Serial_div_qutnt[23] Serial_div_qutnt[24] Serial_div_qutnt[25] Serial_div_qutnt[26] Serial_div_rmndr[0] Serial_div_rmndr[1] Serial_div_rmndr[2] Serial_div_rmndr[3] Serial_div_rmndr[4] Serial_div_rmndr[5] Serial_div_rmndr[6] Serial_div_rmndr[7] Serial_div_rmndr[8] Serial_div_rmndr[9] Serial_div_rmndr[10] Serial_div_rmndr[11] Serial_div_rmndr[12] Serial_div_rmndr[13] Serial_div_rmndr[14] Serial_div_rmndr[15] Serial_div_rmndr[16] Serial_div_rmndr[17] Serial_div_rmndr[18] Serial_div_rmndr[19] Serial_div_rmndr[20] Serial_div_rmndr[21] Serial_div_rmndr[22] Serial_div_rmndr[23] Serial_div_rmndr[24] Serial_div_rmndr[25] Serial_div_rmndr[26] Serial_div_sign Serial_div_div_zero serial_div
X84 Clk_i S_opa_i[0] N246 N247 N248 N249 N250 N251 N252 N253 N254 N255 N256 N225 N257 N258 N259 N260 N261 N262 S_opa_i[19] N228 S_opa_i[21] S_opa_i[22] N263 S_opa_i[24] S_opa_i[25] S_opa_i[26] S_opa_i[27] S_opa_i[28] N264 N223 S_opa_i[31] S_opb_i[0] S_opb_i[1] S_opb_i[2] S_opb_i[3] S_opb_i[4] S_opb_i[5] S_opb_i[6] S_opb_i[7] S_opb_i[8] S_opb_i[9] S_opb_i[10] S_opb_i[11] S_opb_i[12] S_opb_i[13] S_opb_i[14] S_opb_i[15] S_opb_i[16] S_opb_i[17] S_opb_i[18] S_opb_i[19] S_opb_i[20] S_opb_i[21] S_opb_i[22] S_opb_i[23] S_opb_i[24] S_opb_i[25] S_opb_i[26] S_opb_i[27] S_opb_i[28] S_opb_i[29] S_opb_i[30] S_opb_i[31] Pre_norm_div_exp[0] Pre_norm_div_exp[1] Pre_norm_div_exp[2] Pre_norm_div_exp[3] Pre_norm_div_exp[4] Pre_norm_div_exp[5] Pre_norm_div_exp[6] Pre_norm_div_exp[7] Pre_norm_div_exp[8] Pre_norm_div_exp[9] SYNOPSYS_UNCONNECTED__27 SYNOPSYS_UNCONNECTED__26 SYNOPSYS_UNCONNECTED__25 SYNOPSYS_UNCONNECTED__24 SYNOPSYS_UNCONNECTED__23 SYNOPSYS_UNCONNECTED__22 SYNOPSYS_UNCONNECTED__21 SYNOPSYS_UNCONNECTED__20 SYNOPSYS_UNCONNECTED__19 SYNOPSYS_UNCONNECTED__18 SYNOPSYS_UNCONNECTED__17 SYNOPSYS_UNCONNECTED__16 SYNOPSYS_UNCONNECTED__15 SYNOPSYS_UNCONNECTED__14 SYNOPSYS_UNCONNECTED__13 SYNOPSYS_UNCONNECTED__12 SYNOPSYS_UNCONNECTED__11 SYNOPSYS_UNCONNECTED__10 SYNOPSYS_UNCONNECTED__9 SYNOPSYS_UNCONNECTED__8 SYNOPSYS_UNCONNECTED__7 SYNOPSYS_UNCONNECTED__6 SYNOPSYS_UNCONNECTED__5 SYNOPSYS_UNCONNECTED__4 SYNOPSYS_UNCONNECTED__3 SYNOPSYS_UNCONNECTED__2 Pre_norm_div_dvdnd[26] Pre_norm_div_dvdnd[27] Pre_norm_div_dvdnd[28] Pre_norm_div_dvdnd[29] Pre_norm_div_dvdnd[30] Pre_norm_div_dvdnd[31] Pre_norm_div_dvdnd[32] Pre_norm_div_dvdnd[33] Pre_norm_div_dvdnd[34] Pre_norm_div_dvdnd[35] Pre_norm_div_dvdnd[36] Pre_norm_div_dvdnd[37] Pre_norm_div_dvdnd[38] Pre_norm_div_dvdnd[39] Pre_norm_div_dvdnd[40] Pre_norm_div_dvdnd[41] Pre_norm_div_dvdnd[42] Pre_norm_div_dvdnd[43] Pre_norm_div_dvdnd[44] Pre_norm_div_dvdnd[45] Pre_norm_div_dvdnd[46] Pre_norm_div_dvdnd[47] Pre_norm_div_dvdnd[48] Pre_norm_div_dvdnd[49] Pre_norm_div_dvsor[0] Pre_norm_div_dvsor[1] Pre_norm_div_dvsor[2] Pre_norm_div_dvsor[3] Pre_norm_div_dvsor[4] Pre_norm_div_dvsor[5] Pre_norm_div_dvsor[6] Pre_norm_div_dvsor[7] Pre_norm_div_dvsor[8] Pre_norm_div_dvsor[9] Pre_norm_div_dvsor[10] Pre_norm_div_dvsor[11] Pre_norm_div_dvsor[12] Pre_norm_div_dvsor[13] Pre_norm_div_dvsor[14] Pre_norm_div_dvsor[15] Pre_norm_div_dvsor[16] Pre_norm_div_dvsor[17] Pre_norm_div_dvsor[18] Pre_norm_div_dvsor[19] Pre_norm_div_dvsor[20] Pre_norm_div_dvsor[21] Pre_norm_div_dvsor[22] Pre_norm_div_dvsor[23] SYNOPSYS_UNCONNECTED__30 SYNOPSYS_UNCONNECTED__29 SYNOPSYS_UNCONNECTED__28 pre_norm_div
X85 Clk_i S_opa_i[0] N246 N247 N248 N249 N250 N251 N252 N253 N254 N255 N256 N226 N257 N258 N259 N260 N261 N262 S_opa_i[19] N229 S_opa_i[21] S_opa_i[22] N263 S_opa_i[24] S_opa_i[25] S_opa_i[26] S_opa_i[27] S_opa_i[28] N264 N223 S_opa_i[31] S_opb_i[0] S_opb_i[1] S_opb_i[2] S_opb_i[3] S_opb_i[4] S_opb_i[5] S_opb_i[6] S_opb_i[7] S_opb_i[8] S_opb_i[9] S_opb_i[10] S_opb_i[11] S_opb_i[12] S_opb_i[13] S_opb_i[14] S_opb_i[15] S_opb_i[16] S_opb_i[17] S_opb_i[18] S_opb_i[19] S_opb_i[20] S_opb_i[21] S_opb_i[22] S_opb_i[23] S_opb_i[24] S_opb_i[25] S_opb_i[26] S_opb_i[27] S_opb_i[28] S_opb_i[29] S_opb_i[30] S_opb_i[31] Pre_norm_mul_exp_10[0] Pre_norm_mul_exp_10[1] Pre_norm_mul_exp_10[2] Pre_norm_mul_exp_10[3] Pre_norm_mul_exp_10[4] Pre_norm_mul_exp_10[5] Pre_norm_mul_exp_10[6] Pre_norm_mul_exp_10[7] Pre_norm_mul_exp_10[8] Pre_norm_mul_exp_10[9] Mul_24_fract_48[0] Mul_24_fract_48[1] Mul_24_fract_48[2] Mul_24_fract_48[3] Mul_24_fract_48[4] Mul_24_fract_48[5] Mul_24_fract_48[6] Mul_24_fract_48[7] Mul_24_fract_48[8] Mul_24_fract_48[9] Mul_24_fract_48[10] Mul_24_fract_48[11] Mul_24_fract_48[12] Mul_24_fract_48[13] Mul_24_fract_48[14] Mul_24_fract_48[15] Mul_24_fract_48[16] Mul_24_fract_48[17] Mul_24_fract_48[18] Mul_24_fract_48[19] Mul_24_fract_48[20] Mul_24_fract_48[21] Mul_24_fract_48[22] Mul_24_fract_48[23] Mul_24_fract_48[24] Mul_24_fract_48[25] Mul_24_fract_48[26] Mul_24_fract_48[27] Mul_24_fract_48[28] Mul_24_fract_48[29] Mul_24_fract_48[30] Mul_24_fract_48[31] Mul_24_fract_48[32] Mul_24_fract_48[33] Mul_24_fract_48[34] Mul_24_fract_48[35] Mul_24_fract_48[36] Mul_24_fract_48[37] Mul_24_fract_48[38] Mul_24_fract_48[39] Mul_24_fract_48[40] Mul_24_fract_48[41] Mul_24_fract_48[42] Mul_24_fract_48[43] Mul_24_fract_48[44] Mul_24_fract_48[45] Mul_24_fract_48[46] Mul_24_fract_48[47] Mul_24_sign S_rmode_i[0] S_rmode_i[1] Post_norm_mul_output[0] Post_norm_mul_output[1] Post_norm_mul_output[2] Post_norm_mul_output[3] Post_norm_mul_output[4] Post_norm_mul_output[5] Post_norm_mul_output[6] Post_norm_mul_output[7] Post_norm_mul_output[8] Post_norm_mul_output[9] Post_norm_mul_output[10] Post_norm_mul_output[11] Post_norm_mul_output[12] Post_norm_mul_output[13] Post_norm_mul_output[14] Post_norm_mul_output[15] Post_norm_mul_output[16] Post_norm_mul_output[17] Post_norm_mul_output[18] Post_norm_mul_output[19] Post_norm_mul_output[20] Post_norm_mul_output[21] Post_norm_mul_output[22] Post_norm_mul_output[23] Post_norm_mul_output[24] Post_norm_mul_output[25] Post_norm_mul_output[26] Post_norm_mul_output[27] Post_norm_mul_output[28] Post_norm_mul_output[29] Post_norm_mul_output[30] Post_norm_mul_output[31] Post_norm_mul_ine post_norm_mul
X86 Clk_i Pre_norm_mul_fracta_24[0] Pre_norm_mul_fracta_24[1] Pre_norm_mul_fracta_24[2] Pre_norm_mul_fracta_24[3] Pre_norm_mul_fracta_24[4] Pre_norm_mul_fracta_24[5] Pre_norm_mul_fracta_24[6] Pre_norm_mul_fracta_24[7] Pre_norm_mul_fracta_24[8] Pre_norm_mul_fracta_24[9] Pre_norm_mul_fracta_24[10] Pre_norm_mul_fracta_24[11] Pre_norm_mul_fracta_24[12] Pre_norm_mul_fracta_24[13] Pre_norm_mul_fracta_24[14] Pre_norm_mul_fracta_24[15] Pre_norm_mul_fracta_24[16] Pre_norm_mul_fracta_24[17] Pre_norm_mul_fracta_24[18] Pre_norm_mul_fracta_24[19] Pre_norm_mul_fracta_24[20] Pre_norm_mul_fracta_24[21] Pre_norm_mul_fracta_24[22] Pre_norm_mul_fracta_24[23] Pre_norm_mul_fractb_24[0] Pre_norm_mul_fractb_24[1] Pre_norm_mul_fractb_24[2] Pre_norm_mul_fractb_24[3] Pre_norm_mul_fractb_24[4] Pre_norm_mul_fractb_24[5] Pre_norm_mul_fractb_24[6] Pre_norm_mul_fractb_24[7] Pre_norm_mul_fractb_24[8] Pre_norm_mul_fractb_24[9] Pre_norm_mul_fractb_24[10] Pre_norm_mul_fractb_24[11] Pre_norm_mul_fractb_24[12] Pre_norm_mul_fractb_24[13] Pre_norm_mul_fractb_24[14] Pre_norm_mul_fractb_24[15] Pre_norm_mul_fractb_24[16] Pre_norm_mul_fractb_24[17] Pre_norm_mul_fractb_24[18] Pre_norm_mul_fractb_24[19] Pre_norm_mul_fractb_24[20] Pre_norm_mul_fractb_24[21] Pre_norm_mul_fractb_24[22] Pre_norm_mul_fractb_24[23] S_opa_i[31] S_opb_i[31] S_start_i _NC158 _NC159 _NC160 _NC161 _NC162 _NC163 _NC164 _NC165 _NC166 _NC167 _NC168 _NC169 _NC170 _NC171 _NC172 _NC173 _NC174 _NC175 _NC176 _NC177 _NC178 _NC179 _NC180 _NC181 _NC182 _NC183 _NC184 _NC185 _NC186 _NC187 _NC188 _NC189 _NC190 _NC191 _NC192 _NC193 _NC194 _NC195 _NC196 _NC197 _NC198 _NC199 _NC200 _NC201 _NC202 _NC203 _NC204 _NC205 _NC206 _NC207 serial_mul
X87 Clk_i Pre_norm_mul_fracta_24[0] Pre_norm_mul_fracta_24[1] Pre_norm_mul_fracta_24[2] Pre_norm_mul_fracta_24[3] Pre_norm_mul_fracta_24[4] Pre_norm_mul_fracta_24[5] Pre_norm_mul_fracta_24[6] Pre_norm_mul_fracta_24[7] Pre_norm_mul_fracta_24[8] Pre_norm_mul_fracta_24[9] Pre_norm_mul_fracta_24[10] Pre_norm_mul_fracta_24[11] Pre_norm_mul_fracta_24[12] Pre_norm_mul_fracta_24[13] Pre_norm_mul_fracta_24[14] Pre_norm_mul_fracta_24[15] Pre_norm_mul_fracta_24[16] Pre_norm_mul_fracta_24[17] Pre_norm_mul_fracta_24[18] Pre_norm_mul_fracta_24[19] Pre_norm_mul_fracta_24[20] Pre_norm_mul_fracta_24[21] Pre_norm_mul_fracta_24[22] Pre_norm_mul_fracta_24[23] Pre_norm_mul_fractb_24[0] Pre_norm_mul_fractb_24[1] Pre_norm_mul_fractb_24[2] Pre_norm_mul_fractb_24[3] Pre_norm_mul_fractb_24[4] Pre_norm_mul_fractb_24[5] Pre_norm_mul_fractb_24[6] Pre_norm_mul_fractb_24[7] Pre_norm_mul_fractb_24[8] Pre_norm_mul_fractb_24[9] Pre_norm_mul_fractb_24[10] Pre_norm_mul_fractb_24[11] Pre_norm_mul_fractb_24[12] Pre_norm_mul_fractb_24[13] Pre_norm_mul_fractb_24[14] Pre_norm_mul_fractb_24[15] Pre_norm_mul_fractb_24[16] Pre_norm_mul_fractb_24[17] Pre_norm_mul_fractb_24[18] Pre_norm_mul_fractb_24[19] Pre_norm_mul_fractb_24[20] Pre_norm_mul_fractb_24[21] Pre_norm_mul_fractb_24[22] Pre_norm_mul_fractb_24[23] S_opa_i[31] S_opb_i[31] Start_i Mul_24_fract_48[0] Mul_24_fract_48[1] Mul_24_fract_48[2] Mul_24_fract_48[3] Mul_24_fract_48[4] Mul_24_fract_48[5] Mul_24_fract_48[6] Mul_24_fract_48[7] Mul_24_fract_48[8] Mul_24_fract_48[9] Mul_24_fract_48[10] Mul_24_fract_48[11] Mul_24_fract_48[12] Mul_24_fract_48[13] Mul_24_fract_48[14] Mul_24_fract_48[15] Mul_24_fract_48[16] Mul_24_fract_48[17] Mul_24_fract_48[18] Mul_24_fract_48[19] Mul_24_fract_48[20] Mul_24_fract_48[21] Mul_24_fract_48[22] Mul_24_fract_48[23] Mul_24_fract_48[24] Mul_24_fract_48[25] Mul_24_fract_48[26] Mul_24_fract_48[27] Mul_24_fract_48[28] Mul_24_fract_48[29] Mul_24_fract_48[30] Mul_24_fract_48[31] Mul_24_fract_48[32] Mul_24_fract_48[33] Mul_24_fract_48[34] Mul_24_fract_48[35] Mul_24_fract_48[36] Mul_24_fract_48[37] Mul_24_fract_48[38] Mul_24_fract_48[39] Mul_24_fract_48[40] Mul_24_fract_48[41] Mul_24_fract_48[42] Mul_24_fract_48[43] Mul_24_fract_48[44] Mul_24_fract_48[45] Mul_24_fract_48[46] Mul_24_fract_48[47] Mul_24_sign _NC208 mul_24
X88 Clk_i S_opa_i[0] N246 N247 N248 N249 N250 N251 N252 N253 N254 N255 N256 N224 N257 N258 N259 N260 N261 N262 S_opa_i[19] N227 S_opa_i[21] S_opa_i[22] N263 S_opa_i[24] S_opa_i[25] S_opa_i[26] S_opa_i[27] S_opa_i[28] N264 N223 S_opa_i[31] S_opb_i[0] S_opb_i[1] S_opb_i[2] S_opb_i[3] S_opb_i[4] S_opb_i[5] S_opb_i[6] S_opb_i[7] S_opb_i[8] S_opb_i[9] S_opb_i[10] S_opb_i[11] S_opb_i[12] S_opb_i[13] S_opb_i[14] S_opb_i[15] S_opb_i[16] S_opb_i[17] S_opb_i[18] S_opb_i[19] S_opb_i[20] S_opb_i[21] S_opb_i[22] S_opb_i[23] S_opb_i[24] S_opb_i[25] S_opb_i[26] S_opb_i[27] S_opb_i[28] S_opb_i[29] S_opb_i[30] S_opb_i[31] Pre_norm_mul_exp_10[0] Pre_norm_mul_exp_10[1] Pre_norm_mul_exp_10[2] Pre_norm_mul_exp_10[3] Pre_norm_mul_exp_10[4] Pre_norm_mul_exp_10[5] Pre_norm_mul_exp_10[6] Pre_norm_mul_exp_10[7] Pre_norm_mul_exp_10[8] Pre_norm_mul_exp_10[9] Pre_norm_mul_fracta_24[0] Pre_norm_mul_fracta_24[1] Pre_norm_mul_fracta_24[2] Pre_norm_mul_fracta_24[3] Pre_norm_mul_fracta_24[4] Pre_norm_mul_fracta_24[5] Pre_norm_mul_fracta_24[6] Pre_norm_mul_fracta_24[7] Pre_norm_mul_fracta_24[8] Pre_norm_mul_fracta_24[9] Pre_norm_mul_fracta_24[10] Pre_norm_mul_fracta_24[11] Pre_norm_mul_fracta_24[12] Pre_norm_mul_fracta_24[13] Pre_norm_mul_fracta_24[14] Pre_norm_mul_fracta_24[15] Pre_norm_mul_fracta_24[16] Pre_norm_mul_fracta_24[17] Pre_norm_mul_fracta_24[18] Pre_norm_mul_fracta_24[19] Pre_norm_mul_fracta_24[20] Pre_norm_mul_fracta_24[21] Pre_norm_mul_fracta_24[22] Pre_norm_mul_fracta_24[23] Pre_norm_mul_fractb_24[0] Pre_norm_mul_fractb_24[1] Pre_norm_mul_fractb_24[2] Pre_norm_mul_fractb_24[3] Pre_norm_mul_fractb_24[4] Pre_norm_mul_fractb_24[5] Pre_norm_mul_fractb_24[6] Pre_norm_mul_fractb_24[7] Pre_norm_mul_fractb_24[8] Pre_norm_mul_fractb_24[9] Pre_norm_mul_fractb_24[10] Pre_norm_mul_fractb_24[11] Pre_norm_mul_fractb_24[12] Pre_norm_mul_fractb_24[13] Pre_norm_mul_fractb_24[14] Pre_norm_mul_fractb_24[15] Pre_norm_mul_fractb_24[16] Pre_norm_mul_fractb_24[17] Pre_norm_mul_fractb_24[18] Pre_norm_mul_fractb_24[19] Pre_norm_mul_fractb_24[20] Pre_norm_mul_fractb_24[21] Pre_norm_mul_fractb_24[22] Pre_norm_mul_fractb_24[23] pre_norm_mul
X89 Clk_i S_opa_i[0] N246 N247 N248 N249 N250 N251 N252 N253 N254 N255 N256 N225 N257 N258 N259 N260 N261 N262 S_opa_i[19] N228 S_opa_i[21] S_opa_i[22] N263 S_opa_i[24] S_opa_i[25] S_opa_i[26] S_opa_i[27] S_opa_i[28] N264 N223 S_opa_i[31] S_opb_i[0] S_opb_i[1] S_opb_i[2] S_opb_i[3] S_opb_i[4] S_opb_i[5] S_opb_i[6] S_opb_i[7] S_opb_i[8] S_opb_i[9] S_opb_i[10] S_opb_i[11] S_opb_i[12] S_opb_i[13] S_opb_i[14] S_opb_i[15] S_opb_i[16] S_opb_i[17] S_opb_i[18] S_opb_i[19] S_opb_i[20] S_opb_i[21] S_opb_i[22] S_opb_i[23] S_opb_i[24] S_opb_i[25] S_opb_i[26] S_opb_i[27] S_opb_i[28] S_opb_i[29] S_opb_i[30] S_opb_i[31] Addsub_fract_o[0] Addsub_fract_o[1] Addsub_fract_o[2] Addsub_fract_o[3] Addsub_fract_o[4] Addsub_fract_o[5] Addsub_fract_o[6] Addsub_fract_o[7] Addsub_fract_o[8] Addsub_fract_o[9] Addsub_fract_o[10] Addsub_fract_o[11] Addsub_fract_o[12] Addsub_fract_o[13] Addsub_fract_o[14] Addsub_fract_o[15] Addsub_fract_o[16] Addsub_fract_o[17] Addsub_fract_o[18] Addsub_fract_o[19] Addsub_fract_o[20] Addsub_fract_o[21] Addsub_fract_o[22] Addsub_fract_o[23] Addsub_fract_o[24] Addsub_fract_o[25] Addsub_fract_o[26] Addsub_fract_o[27] Prenorm_addsub_exp_o[0] Prenorm_addsub_exp_o[1] Prenorm_addsub_exp_o[2] Prenorm_addsub_exp_o[3] Prenorm_addsub_exp_o[4] Prenorm_addsub_exp_o[5] Prenorm_addsub_exp_o[6] Prenorm_addsub_exp_o[7] Addsub_sign_o S_fpu_op_i[0] S_rmode_i[0] S_rmode_i[1] Postnorm_addsub_output_o[0] Postnorm_addsub_output_o[1] Postnorm_addsub_output_o[2] Postnorm_addsub_output_o[3] Postnorm_addsub_output_o[4] Postnorm_addsub_output_o[5] Postnorm_addsub_output_o[6] Postnorm_addsub_output_o[7] Postnorm_addsub_output_o[8] Postnorm_addsub_output_o[9] Postnorm_addsub_output_o[10] Postnorm_addsub_output_o[11] Postnorm_addsub_output_o[12] Postnorm_addsub_output_o[13] Postnorm_addsub_output_o[14] Postnorm_addsub_output_o[15] Postnorm_addsub_output_o[16] Postnorm_addsub_output_o[17] Postnorm_addsub_output_o[18] Postnorm_addsub_output_o[19] Postnorm_addsub_output_o[20] Postnorm_addsub_output_o[21] Postnorm_addsub_output_o[22] Postnorm_addsub_output_o[23] Postnorm_addsub_output_o[24] Postnorm_addsub_output_o[25] Postnorm_addsub_output_o[26] Postnorm_addsub_output_o[27] Postnorm_addsub_output_o[28] Postnorm_addsub_output_o[29] Postnorm_addsub_output_o[30] Postnorm_addsub_output_o[31] Postnorm_addsub_ine_o post_norm_addsub